Version 4
SHEET 1 1712 808
WIRE -960 -208 -1024 -208
WIRE -848 -208 -960 -208
WIRE -704 -208 -848 -208
WIRE -592 -208 -704 -208
WIRE -176 -208 -592 -208
WIRE -160 -208 -176 -208
WIRE -64 -208 -80 -208
WIRE -32 -208 -64 -208
WIRE 736 -208 64 -208
WIRE 816 -208 736 -208
WIRE 928 -208 816 -208
WIRE 1200 -208 928 -208
WIRE -960 -176 -960 -208
WIRE 192 -128 192 -160
WIRE -896 -112 -912 -112
WIRE -864 -112 -896 -112
WIRE -800 -112 -864 -112
WIRE -496 -112 -800 -112
WIRE 176 -112 -496 -112
WIRE 192 -112 192 -128
WIRE 192 -112 176 -112
WIRE 272 -112 272 -160
WIRE 288 -112 272 -112
WIRE 320 -112 288 -112
WIRE 576 -112 416 -112
WIRE 672 -112 576 -112
WIRE 976 -112 672 -112
WIRE 1024 -112 976 -112
WIRE 1296 -112 1024 -112
WIRE -960 -80 -960 -112
WIRE -864 -80 -864 -112
WIRE 576 -80 576 -112
WIRE 672 -80 672 -112
WIRE -496 -64 -496 -112
WIRE 928 -48 928 -208
WIRE 1200 -48 1200 -208
WIRE -800 -32 -800 -112
WIRE -704 -32 -704 -208
WIRE -592 -32 -592 -208
WIRE -176 -32 -176 -208
WIRE -64 -32 -64 -208
WIRE 48 -32 48 -160
WIRE 176 -32 176 -112
WIRE 288 -32 288 -112
WIRE 400 -32 400 -64
WIRE -864 16 -864 -16
WIRE -368 48 -544 48
WIRE -288 48 -368 48
WIRE 576 48 576 0
WIRE 576 48 512 48
WIRE 1024 48 1024 -112
WIRE 1296 48 1296 -112
WIRE -1024 80 -1024 -208
WIRE -912 80 -912 -112
WIRE -592 80 -592 48
WIRE -544 80 -544 48
WIRE -544 80 -592 80
WIRE -800 96 -800 48
WIRE -704 96 -704 48
WIRE -592 96 -592 80
WIRE -496 128 -496 16
WIRE -288 128 -496 128
WIRE 672 128 672 0
WIRE 672 128 512 128
WIRE 912 128 672 128
WIRE 736 144 736 -208
WIRE -368 208 -368 48
WIRE -288 208 -368 208
WIRE 672 208 512 208
WIRE -496 256 -496 128
WIRE -416 256 -496 256
WIRE -496 272 -496 256
WIRE -288 288 -320 288
WIRE 736 288 736 224
WIRE 736 288 512 288
WIRE 576 368 576 48
WIRE 736 368 736 288
WIRE -64 400 -64 368
WIRE 288 400 288 368
WIRE -416 544 -416 256
WIRE 672 544 672 208
WIRE 672 544 -416 544
WIRE -1024 624 -1024 160
WIRE -912 624 -912 160
WIRE -800 624 -800 160
WIRE -704 624 -704 160
WIRE -592 624 -592 176
WIRE -496 624 -496 352
WIRE -320 624 -320 288
WIRE -64 624 -64 464
WIRE 288 624 288 464
WIRE 576 624 576 448
WIRE 736 624 736 448
WIRE 928 624 928 16
WIRE 1024 624 1024 112
WIRE 1200 624 1200 32
WIRE 1296 624 1296 128
FLAG -1024 624 0
FLAG -912 624 0
FLAG -704 624 0
FLAG -592 624 0
FLAG -496 624 0
FLAG -320 624 0
FLAG -800 624 0
FLAG -960 -80 0
FLAG -864 16 0
FLAG -64 624 0
FLAG 288 624 0
FLAG 736 624 0
FLAG 576 624 0
FLAG 928 624 0
FLAG 1024 624 0
FLAG 976 -112 out1.8
FLAG 816 -208 out3.3
FLAG -848 -208 in3.3
FLAG -896 -112 in1.8
FLAG 192 -128 Isense1.8
FLAG 1200 624 0
FLAG 1296 624 0
SYMBOL PowerProducts\\LTC4221 112 144 R0
SYMATTR InstName U1
SYMBOL voltage -1024 64 R0
WINDOW 123 0 0 Left 0
WINDOW 39 0 0 Left 0
SYMATTR InstName V1
SYMATTR Value 3.3
SYMBOL voltage -912 64 R0
WINDOW 123 0 0 Left 0
WINDOW 39 0 0 Left 0
SYMATTR InstName V2
SYMATTR Value 1.8
SYMBOL res -64 -224 R90
WINDOW 0 0 56 VBottom 2
WINDOW 3 32 56 VTop 2
SYMATTR InstName R1
SYMATTR Value 0.006
SYMBOL res -720 -48 R0
SYMATTR InstName R3
SYMATTR Value 10
SYMBOL cap -720 96 R0
SYMATTR InstName C1
SYMATTR Value 100n
SYMBOL res -608 -48 R0
SYMATTR InstName R4
SYMATTR Value 21k
SYMBOL res -608 80 R0
SYMATTR InstName R5
SYMATTR Value 10k
SYMBOL res -512 -80 R0
SYMATTR InstName R6
SYMATTR Value 10k
SYMBOL res -512 256 R0
SYMATTR InstName R7
SYMATTR Value 10k
SYMBOL res -816 -48 R0
SYMATTR InstName R8
SYMATTR Value 10
SYMBOL cap -816 96 R0
SYMATTR InstName C2
SYMATTR Value 100n
SYMBOL zener -944 -112 R180
WINDOW 0 24 64 Left 2
WINDOW 3 24 0 Left 2
SYMATTR InstName D1
SYMBOL zener -848 -16 R180
WINDOW 0 24 64 Left 2
WINDOW 3 24 0 Left 2
SYMATTR InstName D2
SYMBOL cap 272 400 R0
SYMATTR InstName C3
SYMATTR Value 1n
SYMBOL cap -80 400 R0
SYMATTR InstName C4
SYMATTR Value 470n
SYMBOL nmos -32 -160 R270
SYMATTR InstName M1
SYMATTR Value IRF7413
SYMBOL nmos 320 -64 R270
SYMATTR InstName M2
SYMATTR Value IRF7413
SYMBOL res 720 128 R0
SYMATTR InstName R9
SYMATTR Value 20k
SYMBOL res 560 -96 R0
SYMATTR InstName R10
SYMATTR Value 14.3k
SYMBOL res 720 352 R0
SYMATTR InstName R11
SYMATTR Value 5.11k
SYMBOL res 656 -96 R0
SYMATTR InstName R12
SYMATTR Value 10k
SYMBOL res 560 352 R0
SYMATTR InstName R13
SYMATTR Value 5.11k
SYMBOL cap 912 -48 R0
SYMATTR InstName C5
SYMATTR Value 2400µ
SYMBOL cap 1008 48 R0
SYMATTR InstName C6
SYMATTR Value 2400µ
SYMBOL res 288 -176 R90
WINDOW 0 0 56 VBottom 2
WINDOW 3 32 56 VTop 2
SYMATTR InstName R2
SYMATTR Value 0.006
SYMBOL res 1184 -64 R0
SYMATTR InstName R14
SYMATTR Value 10
SYMBOL res 1280 32 R0
SYMATTR InstName R15
SYMATTR Value 10k
TEXT 816 792 Left 2 !.tran 1
TEXT 1088 -216 Left 2 !.model LD SW(Ron=100 Roff=10 vt=.5 vh=-200m)
